%{%(solver/SolverName%)
%:buoyantSimpleFoam buoyantPimpleFoam hisa
%[_header%]
FoamFile
{
    version     2.0;
    format      ascii;
    class       dictionary;
    object      thermophysicalProperties;
}
// * * * * * * * * * * * * * * * * * * * * * * * * * * * * * * * * * * * * * //

thermoType
{
%{%(solver/SolverName%)
%:hisa
    type            hePsiThermo;
%:default
    type            heRhoThermo;
%}
    mixture         pureMixture;
%{%(physics/Turbulence%)
%:Inviscid
    transport       const;
%:default
    transport       sutherland;
%}
    thermo          hConst;
    equationOfState perfectGas;
    specie          specie;
%{%(solver/SolverName%)
%:hisa
    energy          sensibleInternalEnergy;
%:default
    energy          sensibleEnthalpy;
%}
}


mixture
{
   specie
   {
       nMoles          1;
       molWeight       %(fluidProperties/0/MolarMass%);
   }
   thermodynamics
   {
       Cp              %(fluidProperties/0/Cp%);
       Hf              0;
   }
   transport
   {
%{%(physics/Turbulence%)
%:Inviscid
       mu              0;
       Pr              1;
%:default
       As              %(fluidProperties/0/SutherlandConstant%);
       Ts              %(fluidProperties/0/SutherlandTemperature%);
%}
   }
}

// ************************************************************************* //
%}