%[_header%]
FoamFile
{
    version     2.0;
    format      ascii;
    class       dictionary;
    object      transportProperties;
}
// * * * * * * * * * * * * * * * * * * * * * * * * * * * * * * * * * * * * * //

%{%(alphaZonesPresent%)
%:False
transportModel  Newtonian;

%{%(fluidProperties%)
nu              [0 2 -1 0 0 0 0] %(fluidProperties/%(0%)/KinematicViscosity%);
%}
%:True
%{%(multiphaseZonesPresent%)
%:True
phases
(
%{%(fluidProperties%)
     %(0%)
     {
         transportModel Newtonian;
         nu [0 2 -1 0 0 0 0] %(fluidProperties/%(0%)/KinematicViscosity%);
         rho [1 -3 0 0 0 0 0] %(fluidProperties/%(0%)/Density%);
     }

%}
);

sigmas
(
%{%(fluidProperties%)
%{%(fluidProperties%)
    (%(0%) %(1%)) 0.07
%}
%}
);

%:False
phases (
%{%(fluidProperties%)
%(0%)
%}
);

%{%(fluidProperties%)
%(0%)
{
    transportModel  Newtonian;
    nu              [0 2 -1 0 0 0 0] %(fluidProperties/%(0%)/KinematicViscosity%);
    rho             [1 -3 0 0 0 0 0] %(fluidProperties/%(0%)/Density%);
}

%}
sigma           [1 0 -2 0 0 0 0] 0.07;
%}
%}

// ************************************************************************* //
