/*--------------------------------*- C++ -*----------------------------------*\
|                                                                             |
|                Generated by the CfdOF workbench for FreeCAD                 |
|                  https://gitlab.com/opensimproject/CfdOF                    |
|                                                                             |
\*---------------------------------------------------------------------------*/
FoamFile
{
    version     2.0;
    format      ascii;
    class       dictionary;
    object      fvOptions;
}
// * * * * * * * * * * * * * * * * * * * * * * * * * * * * * * * * * * * * * //

dynamicFvMesh   dynamicRefineFvMesh;

dynamicRefineFvMeshCoeffs
{
    refineInterval  5;
    field           alpha.water;

    lowerRefineLevel 0.001;
    upperRefineLevel 0.999;

    unrefineLevel   10;
    nBufferLayers   3;
    maxRefinement   1;
    maxCells        20000000;

    correctFluxes
    (
        (phi none)
        (nHatf none)
        (rhoPhi none)
        (ghf none)
        (alphaPhiUn none)
    );

    dumpLevel       false;
}

//************************************************************************ //
