/*--------------------------------*- C++ -*----------------------------------*\
|                                                                             |
|                Generated by the CfdOF workbench for FreeCAD                 |
|                      https://github.com/jaheyns/CfdOF                       |
|                                                                             |
\*---------------------------------------------------------------------------*/
FoamFile
{
    version     2.0;
    format      ascii;
    class       dictionary;
    object      fvSchemes;
}
// * * * * * * * * * * * * * * * * * * * * * * * * * * * * * * * * * * * * * //



ddtSchemes
{
    default         steadyState;
}

divSchemes
{
    default         none;
    // Use second-order accurate convection
    // Bounded schemes for steady-state solution
    div(phi,U)      bounded Gauss linearUpwindV grad(U);
    div(phi,K)      bounded Gauss upwind;
    div(phi,h)      bounded Gauss upwind;
    div(((rho*nuEff)*dev2(T(grad(U))))) Gauss linear;
    div(div(phi,U)) Gauss linear;
    div(phi,k)      bounded Gauss upwind;
    div(phi,epsilon)  bounded Gauss upwind;
}

gradSchemes
{
    // Limit gradient to improve stability when bad cells encountered
    // (0 = no limiting; 1 = do not exceed surrounding cells)
    default         cellLimited Gauss linear 0.95;
    grad(p)         Gauss linear;
    grad(p_rgh)     Gauss linear;
    grad(k)         cellLimited Gauss linear 0.9;
    grad(epsilon)     cellLimited Gauss linear 0.9;
}

laplacianSchemes
{
    // Limited explicit correction to the surface normal gradient,
    // for stability in highly non-orthogonal cells.
    // (0 = uncorrected, fully implicit; 1 = full correction)
    default                     Gauss linear limited 0.3;
    laplacian(DkEff,k)          Gauss linear uncorrected;
    laplacian(DepsilonEff,epsilon)  Gauss linear uncorrected;
}

interpolationSchemes
{
    default         linear;
}

snGradSchemes
{
    // Limited explicit correction to the surface normal gradient,
    // for stability in highly non-orthogonal cells.
    // (0 = uncorrected, fully implicit; 1 = full correction)
    default         limited 0.3;
}

wallDist
{
    method meshWave;
}


// ************************************************************************* //
