%{%(ExtrusionSettings/ExtrusionsPresent%)
%:True
%[_header%]
FoamFile
{
    version     2.0;
    format      ascii;
    class       dictionary;
    object      createPatchDict;
}
// * * * * * * * * * * * * * * * * * * * * * * * * * * * * * * * * * * * * * //

pointSync false;

patches
(
%{%(ExtrusionSettings/Extrusions%)
%{%(ExtrusionSettings/Extrusions/%(0%)/KeepExistingMesh%)
%:False
    {
        name %(ExtrusionSettings/Extrusions/%(0%)/BackFace%);
        patchInfo
        {
            type patch;
        }
        constructFrom patches;
        patches ( );
    }
%}
%}

// ************************************************************************* //
%}
