%[_header%]
FoamFile
{
    version     2.0;
    format      ascii;
    class       dictionary;
    object      fvSchemes;
}
// * * * * * * * * * * * * * * * * * * * * * * * * * * * * * * * * * * * * * //

ddtSchemes {}

gradSchemes {}

divSchemes {}

laplacianSchemes {}

interpolationSchemes {}

snGradSchemes{}

// ************************************************************************* //
