/*--------------------------------*- C++ -*----------------------------------*\
|                                                                             |
|                Generated by the CfdOF workbench for FreeCAD                 |
|                  https://gitlab.com/opensimproject/CfdOF                    |
|                                                                             |
\*---------------------------------------------------------------------------*/
FoamFile
{
    version     4.0;
    format      ascii;
    class       dictionary;
    location    "system";
    object      extrudeMeshDict;
}
// * * * * * * * * * * * * * * * * * * * * * * * * * * * * * * * * * * * * * //

sourceCase          "./";
sourcePatches       (patch_0_1);
constructFrom       patch;
exposedPatchName    patch_0_1BackFace;

flipNormals         false;

extrudeModel        plane;
thickness           1.0;

mergeTol            1e-6;
mergeFaces          false;

// * * * * * * * * * * * * * * * * * * * * * * * * * * * * * * * * * * * * * //
