/*--------------------------------*- C++ -*----------------------------------*\
|                                                                             |
|                Generated by the CfdOF workbench for FreeCAD                 |
|                      https://github.com/jaheyns/CfdOF                       |
|                                                                             |
\*---------------------------------------------------------------------------*/
FoamFile
{
    version     4.0;
    format      ascii;
    class       dictionary;
    location    "system";
    object      extrudeMeshDict;
}
// * * * * * * * * * * * * * * * * * * * * * * * * * * * * * * * * * * * * * //

sourceCase          "./";
sourcePatches       (patch_0_2);
constructFrom       patch;
exposedPatchName    patch_0_2;

flipNormals         false;

extrudeModel        plane;
thickness           0.001;

mergeTol            1e-6;
mergeFaces          false;

// * * * * * * * * * * * * * * * * * * * * * * * * * * * * * * * * * * * * * //
