/*--------------------------------*- C++ -*----------------------------------*\
| =========                 |                                                 |
| \\      /  F ield         | OpenFOAM: The Open Source CFD Toolbox           |
|  \\    /   O peration     | Version:  4.x                                   |
|   \\  /    A nd           | Web:      www.OpenFOAM.org                      |
|    \\/     M anipulation  |                                                 |
\*---------------------------------------------------------------------------*/
FoamFile
{
    version     2.0;
    format      ascii;
    class       volScalarField;
    object      omega;
}
// * * * * * * * * * * * * * * * * * * * * * * * * * * * * * * * * * * * * * //

dimensions      [0 0 -1 0 0 0 0];

internalField   uniform 57.3;

boundaryField
{

    inlet
    {
        type            turbulentMixingLengthFrequencyInlet;
        mixingLength    0.002;
        value           $internalField;
    }

    outlet
    {
        type        inletOutlet;
        inletValue  $internalField;
        value       $internalField;
    }

    wall
    {
        type        omegaWallFunction;
        value       $internalField;
    }

    front
    {
        type        empty;
    }

    back
    {
        type        empty;
    }

    defaultFaces
    {
        type        zeroGradient;
    }

}

// ************************************************************************* //
