%{%(physics/Turbulence%)
%:RANS DES
%{%(physics/TurbulenceModel%)
%:SpalartAllmaras SpalartAllmarasDES SpalartAllmarasDDES SpalartAllmarasIDDES
%[_header%]
FoamFile
{
    version     2.0;
    format      ascii;
    class       volScalarField;
    object      omega;
}
// * * * * * * * * * * * * * * * * * * * * * * * * * * * * * * * * * * * * * //

dimensions      [0 2 -1 0 0 0 0];

internalField   uniform %(initialValues/nuTilda%);

boundaryField
{

%{%(boundaries%)
%{%(boundaries/%(0%)/BoundaryType%)
%:empty
%[0/_boundary_empty%]
%:wall
%{%(boundaries/%(0%)/BoundarySubType%)
%:fixedWall translatingWall rotatingWall partialSlipWall roughWall
    %(0%)
    {
%{%(solver/SolverName%)
%:hisa
        type        boundaryCorrectedFixedValue;
%:default
        type        fixedValue;
%}
        value       uniform 0;
    }
%:slipWall
%[0/_boundary_zeroGradient%]
%}
%:inlet open
    %(0%)
    {
        type        inletOutlet;
        inletValue  uniform %(boundaries/%(0%)/NuTilda%);
        value       $internalField;
    }
%:outlet
    %(0%)
    {
        type        inletOutlet;
        inletValue  $internalField;
        value       $internalField;
    }
%:constraint
%[0/_boundary_constraint%]
%:baffle
%[0/_boundary_cyclic_baffle%]
%}

%}
%[0/_boundary_redistributeHelper%]
}

// ************************************************************************* //
%}
%}