%{%(solver/SolverName%)
%:chtMultiRegionSimpleFoam chtMultiRegionFoam
%[_header%]
FoamFile
{
    version     2.0;
    format      ascii;
    class       dictionary;
    location    "system/%(multiRegionFluidNames/0%)";
    object      decomposeParDict;
}
// * * * * * * * * * * * * * * * * * * * * * * * * * * * * * * * * * * * * * //

numberOfSubdomains  %(solver/ParallelCores%);

method              scotch;

// ************************************************************************* //
%}
