%{%(solver/SolverName%)
%:chtMultiRegionSimpleFoam chtMultiRegionFoam
%[_header%]
FoamFile
{
    version     2.0;
    format      ascii;
    class       dictionary;
    location    "system/%(multiRegionFluidNames/0%)";
    object      fvSchemes;
}
// * * * * * * * * * * * * * * * * * * * * * * * * * * * * * * * * * * * * * //

ddtSchemes
{
    default         steadyState;
}

gradSchemes
{
    default         Gauss linear;
    grad(U)         cellLimited Gauss linear 1;
}

divSchemes
{
    default         none;
    div(phi,U)      bounded Gauss linearUpwindV grad(U);
    div(phi,K)      bounded Gauss upwind;
    div(phi,h)      bounded Gauss upwind;
    div(((rho*nuEff)*dev2(T(grad(U))))) Gauss linear;
%{%(physics/Turbulence%)
%:RANS
%{%(physics/TurbulenceModel%)
%:kOmegaSST
    div(phi,k)      bounded Gauss upwind;
    div(phi,omega)  bounded Gauss upwind;
%:kEpsilon
    div(phi,k)      bounded Gauss upwind;
    div(phi,epsilon)  bounded Gauss upwind;
%:SpalartAllmaras
    div(phi,nuTilda) bounded Gauss upwind;
%}
%}
}

laplacianSchemes
{
    default         Gauss linear corrected;
}

interpolationSchemes
{
    default         linear;
}

snGradSchemes
{
    default         corrected;
}

fluxRequired
{
    default         no;
    p_rgh;
}

wallDist
{
    method          meshWave;
}

// ************************************************************************* //
%}
