%{%(solver/SolverName%)
%:chtMultiRegionSimpleFoam chtMultiRegionFoam
%[_header%]
FoamFile
{
    version     2.0;
    format      ascii;
    class       dictionary;
    location    "system/%(multiRegionFluidNames/0%)";
    object      fvSolution;
}
// * * * * * * * * * * * * * * * * * * * * * * * * * * * * * * * * * * * * * //

SIMPLE
{
    nNonOrthogonalCorrectors 5;
    consistent no;

    residualControl
    {
        p_rgh           %(solver/ConvergenceTol%);
        U               %(solver/ConvergenceTol%);
        h               %(solver/ConvergenceTol%);
        "(k|epsilon|omega|nuTilda)"  %(solver/ConvergenceTol%);
    }

    pRefValue   0;
    pRefCell    0;
}

solvers
{
    "(p_rgh|pcorr)"
    {
        solver           GAMG;
        tolerance        1e-8;
        relTol           0.01;
        smoother         symGaussSeidel;
        nPreSweeps       0;
        nPostSweeps      2;
        cacheAgglomeration on;
        agglomerator     faceAreaPair;
        nCellsInCoarsestLevel 10;
        mergeLevels      1;
        maxIter          20;
    }

    "(p_rghFinal|pcorrFinal)"
    {
        $p_rgh;
        relTol          0;
    }

    U
    {
        solver           smoothSolver;
        smoother         symGaussSeidel;
        tolerance        1e-8;
        relTol           0.1;
        nSweeps          1;
    }

    UFinal
    {
        $U;
        relTol           0;
    }

    h
    {
        solver           smoothSolver;
        smoother         symGaussSeidel;
        tolerance        1e-8;
        relTol           0.1;
        nSweeps          5;
    }

    hFinal
    {
        $h;
        relTol           0;
    }

%{%(physics/Turbulence%)
%:RANS DES LES
    "(k|omega|epsilon|nuTilda)"
    {
        solver           smoothSolver;
        smoother         GaussSeidel;
        tolerance        1e-8;
        relTol           0.1;
        nSweeps          1;
        minIter          1;
    }

    "(k|omega|epsilon|nuTilda)Final"
    {
        $k;
        relTol          0;
    }

%}
    Phi
    {
        solver           GAMG;
        tolerance        1e-7;
        relTol           0.01;
        smoother         GaussSeidel;
        nPreSweeps       0;
        nPostSweeps      2;
        cacheAgglomeration on;
        agglomerator     faceAreaPair;
        nCellsInCoarsestLevel 10;
        mergeLevels      1;
    }
}

relaxationFactors
{
    equations
    {
        U               0.7;
        h               0.3;
%{%(physics/Turbulence%)
%:RANS DES
%{%(physics/TurbulenceModel%)
%:kOmegaSST kOmegaSSTDES kOmegaSSTDDES kOmegaSSTIDDES
        k               0.7;
        omega           0.7;
%:kEpsilon
        k               0.7;
        epsilon         0.7;
%:SpalartAllmaras SpalartAllmarasDES SpalartAllmarasDDES SpalartAllmarasIDDES
        nuTilda         0.7;
%}
%}
    }
    fields
    {
        p_rgh           0.3;
        rho             0.3;
    }
}

// ************************************************************************* //
%}
