%{%(solver/SolverName%)
%:chtMultiRegionSimpleFoam chtMultiRegionFoam
%[_header%]
FoamFile
{
    version     2.0;
    format      ascii;
    class       dictionary;
    location    "constant/%(multiRegionFluidNames/0%)";
    object      momentumTransport;
}
// * * * * * * * * * * * * * * * * * * * * * * * * * * * * * * * * * * * * * //

#include "turbulenceProperties"
%}
