%[_header%]
FoamFile
{
    version   2.0;
    format    ascii;
    class     dictionary;
    location  "system";
    object    mesh;
}

// * * * * * * * * * * * * * * * * * * * * * * * * * * * * * * * * * * * * * //

application         %(MeshUtility%);

deltaT              1;

endTime             1;

graphFormat         raw;

purgeWrite          1;

runTimeModifiable   yes;

startFrom           latestTime;

startTime           0;

stopAt              endTime;

timeFormat          general;

timePrecision       6;

writeCompression    uncompressed;

writeControl        timeStep;

writeFormat         ascii;

writeInterval       1;

writePrecision      15;

// ************************************************************************* //
