%{%(MeshUtility%)
%:snappyHexMesh
%{%(SnappySettings/ParallelMesh%)
%:True
%[_header%]
FoamFile
{
    version     2.0;
    format      ascii;
    class       dictionary;
    object      decomposeParDict;
}
// * * * * * * * * * * * * * * * * * * * * * * * * * * * * * * * * * * * * * //

numberOfSubdomains  %(SnappySettings/NumberCores%);

method              scotch;

// ************************************************************************* //
%}
%}