%{%(MeshUtility%)
%:cfMesh
%[_header%]
FoamFile
{
    version     4.0;
    format      ascii;
    class       dictionary;
    location    "system";
    object      meshDict;
}
// * * * * * * * * * * * * * * * * * * * * * * * * * * * * * * * * * * * * * //

surfaceFile       "%(Name%)_Geometry.fms";

maxCellSize       %(CfSettings/ClMax%);
boundaryCellSize  %(CfSettings/ClMax%);

%{%(CfSettings/InternalRefinementRegionsPresent%)
%:True
objectRefinements
{
%{%(CfSettings/InternalRegions%)
    %(0%)
    {
        cellSize %(CfSettings/InternalRegions/%(0%)/RelativeLength%);

%{%(CfSettings/InternalRegions/%(0%)/InternalRegion/Type%)
%:Box
        type box;
        centre  (%(CfSettings/InternalRegions/%(0%)/InternalRegion/Center/x%)
                 %(CfSettings/InternalRegions/%(0%)/InternalRegion/Center/y%) 
                 %(CfSettings/InternalRegions/%(0%)/InternalRegion/Center/z%));
        lengthX  %(CfSettings/InternalRegions/%(0%)/InternalRegion/BoxLengths/x%);
        lengthY  %(CfSettings/InternalRegions/%(0%)/InternalRegion/BoxLengths/y%);
        lengthZ  %(CfSettings/InternalRegions/%(0%)/InternalRegion/BoxLengths/z%);
%:Sphere
        type sphere;
        centre  (%(CfSettings/InternalRegions/%(0%)/InternalRegion/Center/x%)
                 %(CfSettings/InternalRegions/%(0%)/InternalRegion/Center/y%)
                 %(CfSettings/InternalRegions/%(0%)/InternalRegion/Center/z%));
        radius  %(CfSettings/InternalRegions/%(0%)/InternalRegion/SphereRadius%);
%:Cone
        type cone;
        p0   (%(CfSettings/InternalRegions/%(0%)/InternalRegion/Point1/x%)
              %(CfSettings/InternalRegions/%(0%)/InternalRegion/Point1/y%)
              %(CfSettings/InternalRegions/%(0%)/InternalRegion/Point1/z%));
        p1   (%(CfSettings/InternalRegions/%(0%)/InternalRegion/Point2/x%)
              %(CfSettings/InternalRegions/%(0%)/InternalRegion/Point2/y%)
              %(CfSettings/InternalRegions/%(0%)/InternalRegion/Point2/z%));
        radius0  %(CfSettings/InternalRegions/%(0%)/InternalRegion/Radius1%);
        radius1  %(CfSettings/InternalRegions/%(0%)/InternalRegion/Radius2%);
%}
    }
%}
}
%}

%{%(MeshRegionPresent%)
%:True
surfaceMeshRefinement
{
%{%(CfSettings/MeshRegions%)
    %(0%)
    {
        cellSize  %(CfSettings/MeshRegions/%(0%)/RelativeLength%);
        surfaceFile "constant/triSurface/%(0%).stl";
        refinementThickness %(CfSettings/MeshRegions/%(0%)/RefinementThickness%);
    }
%}
}

%{%(CfSettings/BoundaryLayerPresent%)
%:True
boundaryLayers
{
    patchBoundaryLayers
    {
%{%(CfSettings/BoundaryLayers%)
        "%(0%)"
        {
            nLayers %(CfSettings/BoundaryLayers/%(0%)/NumberLayers%);
            thicknessRatio %(CfSettings/BoundaryLayers/%(0%)/ExpansionRatio%);
            maxFirstLayerThickness %(CfSettings/BoundaryLayers/%(0%)/FirstLayerHeight%);
        }
%}
    }

    optimiseLayer 1;
    untangleLayers 0;

    optimisationParameters
    {
        nSmoothNormals 3;
        maxNumIterations 5;
        featureSizeFactor 0.4;
        reCalculateNormals 1;
        relThicknessTol 0.1;
    }
}
%}
%}

// ************************************************************************* //
%}