%{%(MeshUtility%)
%:cfMesh
%[_header%]
FoamFile
{
    version     4.0;
    format      ascii;
    class       dictionary;
    location    "system";
    object      meshDict;
}
// * * * * * * * * * * * * * * * * * * * * * * * * * * * * * * * * * * * * * //

surfaceFile       "%(Name%)_Geometry.fms";

maxCellSize       %(CfSettings/ClMax%);
boundaryCellSize  %(CfSettings/ClMax%);



%{%(CfSettings/InternalRefinementRegionsPresent%)
%:True
objectRefinements
{
%{%(CfSettings/InternalRegions%)
    %(0%)
    {
        cellSize %(CfSettings/InternalRegions/%(0%)/RelativeLength%);
        centre  (%(CfSettings/InternalRegions/%(0%)/InternalRegion/Center/x%) 
                 %(CfSettings/InternalRegions/%(0%)/InternalRegion/Center/y%) 
                 %(CfSettings/InternalRegions/%(0%)/InternalRegion/Center/z%));

%{%(CfSettings/InternalRegions/%(0%)/InternalRegion/Type%)
%:Box
        type box;
        lengthX  %(CfSettings/InternalRegions/%(0%)/InternalRegion/BoxLengths/x%);
        lengthY  %(CfSettings/InternalRegions/%(0%)/InternalRegion/BoxLengths/y%);
        lengthZ  %(CfSettings/InternalRegions/%(0%)/InternalRegion/BoxLengths/z%);
%}

%{%(CfSettings/InternalRegions/%(0%)/InternalRegion/Type%)
%:Sphere
        type sphere;
        radius  %(CfSettings/InternalRegions/%(0%)/InternalRegion/SphereRadius%);
%}
    }
%}
}
%}


%{%(MeshRegionPresent%)
%:True
surfaceMeshRefinement
{
%{%(CfSettings/MeshRegions%)
    %(0%)
    {
        cellSize  %(CfSettings/MeshRegions/%(0%)/RelativeLength%);
        surfaceFile "constant/triSurface/%(0%).stl";
        refinementThickness %(CfSettings/MeshRegions/%(0%)/RefinementThickness%);
    }
%}
}



%{%(CfSettings/BoundaryLayerPresent%)
%:True
boundaryLayers
{
    patchBoundaryLayers
    {
%{%(CfSettings/BoundaryLayers%)
        "%(0%)"
        {
            nLayers %(CfSettings/BoundaryLayers/%(0%)/NumberLayers%);
            thicknessRatio %(CfSettings/BoundaryLayers/%(0%)/ExpansionRatio%);
            maxFirstLayerThickness %(CfSettings/BoundaryLayers/%(0%)/FirstLayerHeight%);
        }
%}
    }

    optimiseLayer 1;

    optimisationParameters
    {
        nSmoothNormals 3;
        maxNumIterations 5;
        featureSizeFactor 0.4;
        reCalculateNormals 1;
        relThicknessTol 0.1;
    }
}
%}
%}

// ************************************************************************* //
%}