%{%(MeshUtility%)
%:snappyHexMesh
%[_header%]
FoamFile
{
    version     4.0;
    format      ascii;
    class       dictionary;
    location    "system";
    object      snappyHexMeshDict;
}
// * * * * * * * * * * * * * * * * * * * * * * * * * * * * * * * * * * * * * //

castellatedMesh true;
snap            true;
addLayers       false;

geometry
{
    "%(Name%)_Geometry.stl"
    {
        type triSurfaceMesh;
        name %(Name%)_Geometry;
        regions
        {
%{%(SnappySettings/ShapeFaceNames%)
            %(0%)
            {
                name %(0%);
            }

%}
        }
    }

%{%(MeshRegionPresent%)
%:True
%{%(SnappySettings/MeshRegions%)
    "%(SnappySettings/MeshRegions/%(0%)/RegionName%).stl"
    {
        type triSurfaceMesh;
        name %(SnappySettings/MeshRegions/%(0%)/RegionName%);
    }

%}
%}
};

castellatedMeshControls
{
    maxLocalCells 100000;
    maxGlobalCells 2000000;
    minRefinementCells 0;
    nCellsBetweenLevels %(SnappySettings/CellsBetweenLevels%);

    features
    (
        {
            file "%(Name%)_Geometry.eMesh";
            level %(SnappySettings/EdgeRefinementLevel%);
        }
%{%(MeshRegionPresent%)
%:True
%{%(SnappySettings/MeshRegions%)
        {
            file "%(SnappySettings/MeshRegions/%(0%)/RegionName%).eMesh";
            level %(SnappySettings/MeshRegions/%(0%)/EdgeRefinementLevel%);
        }

%}
%}
    );

    refinementSurfaces
    {
        %(Name%)_Geometry
        {
            level (0 0);
        }

%{%(MeshRegionPresent%)
%:True
%{%(SnappySettings/MeshRegions%)
        %(SnappySettings/MeshRegions/%(0%)/RegionName%)
        {
            level (%(SnappySettings/MeshRegions/%(0%)/EdgeRefinementLevel%) %(SnappySettings/MeshRegions/%(0%)/EdgeRefinementLevel%));
%{%(SnappySettings/MeshRegions/%(0%)/Baffle%)
%:True
            faceType baffle;
%}
            faceZone %(SnappySettings/MeshRegions/%(0%)/RegionName%);
        }

%}
%}
    }

    resolveFeatureAngle 30;

    refinementRegions
    {
    }

    locationInMesh (%(SnappySettings/PointInMesh/x%) %(SnappySettings/PointInMesh/y%) %(SnappySettings/PointInMesh/z%));
    allowFreeStandingZoneFaces true;
}

snapControls
{
    nSmoothPatch 3;
    tolerance 1.0;
    nSolveIter 100;
    nRelaxIter 5;
    nFeatureSnapIter 10;
}

addLayersControls
{
    relativeSizes true;
    layers
    {
    }
    expansionRatio 1.3;
    finalLayerThickness 1;
    minThickness 0.1;
    nGrow 0;
    featureAngle 30;
    nRelaxIter 3;
    nSmoothSurfaceNormals 1;
    nSmoothNormals 3;
    nSmoothThickness 2;
    maxFaceThicknessRatio 0.5;
    maxThicknessToMedialRatio 1;
    minMedianAxisAngle 90;
    nBufferCellsNoExtrude 0;
    nLayerIter 50;
}

meshQualityControls
{
    maxNonOrtho 65;

    maxBoundarySkewness 20;
    maxInternalSkewness 4;

    maxConcave 80;
    minVol 1e-13;
    minTetQuality -1;
    minArea -1;
    minTwist 0.01;
    minDeterminant 0.001;
    minFaceWeight 0.05;
    minVolRatio 0.01;
    minTriangleTwist -1;
    nSmoothScale 4;
    errorReduction 0.75;
    relaxed
    {
        maxNonOrtho 75;
    }
}

mergeTolerance 1e-6;

// ************************************************************************* //
%}