%[_header%]
FoamFile
{
    version     2.0;
    format      ascii;
    class       volVectorField;
    object      S;
}
// * * * * * * * * * * * * * * * * * * * * * * * * * * * * * * * * * * * * * //

dimensions      [0 1 -1 0 0 0 0];

internalField   uniform XXX;

boundaryField
{

}