/*--------------------------------*- C++ -*----------------------------------*\
|                                                                             |
|                Generated by the CfdOF workbench for FreeCAD                 |
|                  https://gitlab.com/opensimproject/CfdOF                    |
|                                                                             |
\*---------------------------------------------------------------------------*/
FoamFile
{
    version     2.0;
    format      ascii;
    class       dictionary;
    object      controlDict;
}
// * * * * * * * * * * * * * * * * * * * * * * * * * * * * * * * * * * * * * //

application     pimpleFoam;

startFrom       startTime;

startTime       0;

stopAt          endTime;

deltaT          0.001;

endTime         1.0;

writeControl    adjustableRunTime;

writeInterval   0.1;

purgeWrite      0;

adjustTimeStep  yes;

maxCo           5;

writeFormat     ascii;

writePrecision  8;

runTimeModifiable true;

libs
(
    // Needed for availability of porous baffle boundary in potentialFoam
    #include "turbulenceLib"
);

functions
{
        // No functions configured
}
// ************************************************************************* //
