/*--------------------------------*- C++ -*----------------------------------*\
|                                                                             |
|                Generated by the CfdOF workbench for FreeCAD                 |
|                      https://github.com/jaheyns/CfdOF                       |
|                                                                             |
\*---------------------------------------------------------------------------*/
FoamFile
{
    version     2.0;
    format      ascii;
    class       dictionary;
    object      topoSetZonesDict;
}
// * * * * * * * * * * * * * * * * * * * * * * * * * * * * * * * * * * * * * //

actions
(

    {
        name    Cylinder001SelectedSurface;
        type    cellSet;
        action  new;
        source  surfaceToCell;
        sourceInfo
        {
            file            "constant/triSurface/Cylinder001.stl";
            useSurfaceOrientation true;
            outsidePoints   ();    //Ignored if useSurfaceOrientation true
            includeCut      false; //Ignored if useSurfaceOrientation true
            includeInside   true;
            includeOutside  false;
            nearDistance    -1;
            curvature       -100;
        }
    }

    {
        name    Cylinder001;
        type    cellZoneSet;
        action  new;
        source  setToCellZone;
        sourceInfo
        {
            set Cylinder001SelectedSurface;
        }
    }

    {
        name    Cylinder002SelectedSurface;
        type    cellSet;
        action  new;
        source  surfaceToCell;
        sourceInfo
        {
            file            "constant/triSurface/Cylinder002.stl";
            useSurfaceOrientation true;
            outsidePoints   ();    //Ignored if useSurfaceOrientation true
            includeCut      false; //Ignored if useSurfaceOrientation true
            includeInside   true;
            includeOutside  false;
            nearDistance    -1;
            curvature       -100;
        }
    }

    {
        name    Cylinder002;
        type    cellZoneSet;
        action  new;
        source  setToCellZone;
        sourceInfo
        {
            set Cylinder002SelectedSurface;
        }
    }

    {
        name    CylinderSelectedSurface;
        type    cellSet;
        action  new;
        source  surfaceToCell;
        sourceInfo
        {
            file            "constant/triSurface/Cylinder.stl";
            useSurfaceOrientation true;
            outsidePoints   ();    //Ignored if useSurfaceOrientation true
            includeCut      false; //Ignored if useSurfaceOrientation true
            includeInside   true;
            includeOutside  false;
            nearDistance    -1;
            curvature       -100;
        }
    }

    {
        name    Cylinder;
        type    cellZoneSet;
        action  new;
        source  setToCellZone;
        sourceInfo
        {
            set CylinderSelectedSurface;
        }
    }

);

// ************************************************************************* //
