/*--------------------------------*- C++ -*----------------------------------*\
|                                                                             |
|                Generated by the CfdOF workbench for FreeCAD                 |
|                      https://github.com/jaheyns/CfdOF                       |
|                                                                             |
\*---------------------------------------------------------------------------*/
FoamFile
{
    version     2.0;
    format      ascii;
    class       volScalarField;
    object      omega;
}
// * * * * * * * * * * * * * * * * * * * * * * * * * * * * * * * * * * * * * //

dimensions      [0 0 -1 0 0 0 0];

internalField   uniform 1.0;

boundaryField
{

    constraint
    {
        type        symmetry;
        value       $internalField;
    }

    constraint001_master
    {
        type        cyclicAMI;
    }

    constraint001_slave
    {
        type        cyclicAMI;
    }



    wall
    {
        type        omegaWallFunction;
        value       $internalField;
    }

    defaultFaces
    {
        type        zeroGradient;
    }

}

// ************************************************************************* //
