/*--------------------------------*- C++ -*----------------------------------*\
|                                                                             |
|                Generated by the CfdOF workbench for FreeCAD                 |
|                      https://github.com/jaheyns/CfdOF                       |
|                                                                             |
\*---------------------------------------------------------------------------*/
FoamFile
{
    version     2.0;
    format      ascii;
    class       volVectorField;
    object      U;
}
// * * * * * * * * * * * * * * * * * * * * * * * * * * * * * * * * * * * * * //

dimensions      [0 1 -1 0 0 0 0];

internalField   uniform (0.005 0.0 0.0);

boundaryField
{

    constraint
    {
        type        symmetry;
        value       $internalField;
    }

    constraint001_master
    {
        type        cyclicAMI;
    }

    constraint001_slave
    {
        type        cyclicAMI;
    }



    wall
    {
        // movingWallVelocity reduces to fixedValue if the mesh is not moving
        type        movingWallVelocity;
        value       uniform (0 0 0);
    }

    defaultFaces
    {
        type        slip;
        value       $internalField;
    }

}

// ************************************************************************* //
