/*--------------------------------*- C++ -*----------------------------------*\
|                                                                             |
|                Generated by the CfdOF workbench for FreeCAD                 |
|                      https://github.com/jaheyns/CfdOF                       |
|                                                                             |
\*---------------------------------------------------------------------------*/
FoamFile
{
    version     2.0;
    format      ascii;
    class       dictionary;
    object      createPatchDict;
}
// * * * * * * * * * * * * * * * * * * * * * * * * * * * * * * * * * * * * * //

pointSync false;

// Patches to create.
patches
(
    {
        name constraint;
        patchInfo
        {
            type symmetry;
        }
        constructFrom patches;
        patches ( "patch_1_.*" );
    }

    {
        name inlet;
        patchInfo
        {
            type patch;
        }
        constructFrom patches;
        patches ( "patch_2_.*" );
    }

    {
        name slip;
        patchInfo
        {
            type wall;
        }
        constructFrom patches;
        patches ( "patch_3_.*" );
    }

    {
        name outlet;
        patchInfo
        {
            type patch;
        }
        constructFrom patches;
        patches ( "patch_4_.*" );
    }

    {
        name wall;
        patchInfo
        {
            type wall;
        }
        constructFrom patches;
        patches ( "patch_5_.*" );
    }

    {
        name defaultFaces;
        patchInfo
        {
            type patch;
        }
        constructFrom patches;
        patches ( "patch_0_0" "patch_0_1" "patch_0_2" "patch_0_3" );
    }


);


// ************************************************************************* //
