%{%(solver/SolverName%)
%:chtMultiRegionSimpleFoam chtMultiRegionFoam
%[_header%]
FoamFile
{
    version     2.0;
    format      ascii;
    class       dictionary;
    object      regionProperties;
}
// * * * * * * * * * * * * * * * * * * * * * * * * * * * * * * * * * * * * * //

regions
(
    fluid   (
%{%(multiRegionFluidNames%)
        %(multiRegionFluidNames/%(0%)%)
%}
    )
    solid   (
%{%(multiRegionSolidNames%)
        %(multiRegionSolidNames/%(0%)%)
%}
    )
);

// ************************************************************************* //
%}
