%{%(solver/SolverName%)
%:chtMultiRegionSimpleFoam chtMultiRegionFoam
%{%(physics/Turbulence%)
%:RANS DES LES
%[_header%]
FoamFile
{
    version     2.0;
    format      ascii;
    class       volScalarField;
    location    "0/%(multiRegionFluidNames/0%)";
    object      alphat;
}
// * * * * * * * * * * * * * * * * * * * * * * * * * * * * * * * * * * * * * //

dimensions      [1 -1 -1 0 0 0 0];

internalField   uniform 0;

boundaryField
{
%{%(multiRegionFluidBoundaries%)
%{%(multiRegionFluidBoundaries/%(0%)/BoundaryType%)
%:wall
    %(0%)
    {
        type        compressible::alphatWallFunction;
        Prt         0.85;
        value       $internalField;
    }
%:inlet outlet open
    %(0%)
    {
        type        calculated;
        value       $internalField;
    }
%:constraint
%[0/_boundary_constraint%]
%}

%}

%{%(multiRegionSolidNames%)
    %(multiRegionFluidNames/0%)_to_%(multiRegionSolidNames/%(0%)%)
    {
        type        compressible::alphatWallFunction;
        Prt         0.85;
        value       $internalField;
    }

%}
    defaultFaces
    {
        type        compressible::alphatWallFunction;
        Prt         0.85;
        value       $internalField;
    }
}

// ************************************************************************* //
%}
%}
