%{%(solver/SolverName%)
%:chtMultiRegionSimpleFoam chtMultiRegionFoam
%{%(physics/Turbulence%)
%:RANS
%{%(physics/TurbulenceModel%)
%:kEpsilon
%[_header%]
FoamFile
{
    version     2.0;
    format      ascii;
    class       volScalarField;
    location    "0/%(multiRegionFluidNames/0%)";
    object      epsilon;
}
// * * * * * * * * * * * * * * * * * * * * * * * * * * * * * * * * * * * * * //

dimensions      [0 2 -3 0 0 0 0];

internalField   uniform %(initialValues/epsilon%);

boundaryField
{
%{%(multiRegionFluidBoundaries%)
%{%(multiRegionFluidBoundaries/%(0%)/BoundaryType%)
%:wall
    %(0%)
    {
        type        epsilonWallFunction;
        value       $internalField;
    }
%:inlet outlet open
    %(0%)
    {
        type        inletOutlet;
        inletValue  uniform %(initialValues/epsilon%);
        value       uniform %(initialValues/epsilon%);
    }
%:constraint
%[0/_boundary_constraint%]
%}

%}

%{%(multiRegionSolidNames%)
    %(multiRegionFluidNames/0%)_to_%(multiRegionSolidNames/%(0%)%)
    {
        type        epsilonWallFunction;
        value       $internalField;
    }

%}
    defaultFaces
    {
        type        epsilonWallFunction;
        value       $internalField;
    }
}

// ************************************************************************* //
%}
%}
%}
