%{%(solver/SolverName%)
%:chtMultiRegionSimpleFoam chtMultiRegionFoam
%[_header%]
FoamFile
{
    version     2.0;
    format      ascii;
    class       volVectorField;
    location    "0/%(multiRegionFluidNames/0%)";
    object      U;
}
// * * * * * * * * * * * * * * * * * * * * * * * * * * * * * * * * * * * * * //

dimensions      [0 1 -1 0 0 0 0];

internalField   uniform (%(initialValues/Ux%) %(initialValues/Uy%) %(initialValues/Uz%));

boundaryField
{
%{%(multiRegionFluidBoundaries%)
%{%(multiRegionFluidBoundaries/%(0%)/BoundaryType%)
%:wall
%{%(multiRegionFluidBoundaries/%(0%)/BoundarySubType%)
%:fixedWall roughWall
    %(0%)
    {
        type        noSlip;
    }
%:slipWall
    %(0%)
    {
        type        slip;
    }
%:partialSlipWall
    %(0%)
    {
        type        partialSlip;
        valueFraction %(multiRegionFluidBoundaries/%(0%)/SlipRatio%);
        value       uniform (0 0 0);
    }
%:translatingWall
    %(0%)
    {
        type        fixedValue;
        value       uniform (%(multiRegionFluidBoundaries/%(0%)/Ux%) %(multiRegionFluidBoundaries/%(0%)/Uy%) %(multiRegionFluidBoundaries/%(0%)/Uz%));
    }
%:rotatingWall
    %(0%)
    {
        type        rotatingWallVelocity;
        origin      (%(multiRegionFluidBoundaries/%(0%)/CentreOfRotationx%) %(multiRegionFluidBoundaries/%(0%)/CentreOfRotationy%) %(multiRegionFluidBoundaries/%(0%)/CentreOfRotationz%));
        axis        (%(multiRegionFluidBoundaries/%(0%)/RotationAxisx%) %(multiRegionFluidBoundaries/%(0%)/RotationAxisy%) %(multiRegionFluidBoundaries/%(0%)/RotationAxisz%));
        omega       %(multiRegionFluidBoundaries/%(0%)/AngularVelocity%);
    }
%}
%:inlet
%{%(multiRegionFluidBoundaries/%(0%)/BoundarySubType%)
%:uniformVelocityInlet
    %(0%)
    {
        type        fixedValue;
        value       uniform (%(multiRegionFluidBoundaries/%(0%)/Ux%) %(multiRegionFluidBoundaries/%(0%)/Uy%) %(multiRegionFluidBoundaries/%(0%)/Uz%));
    }
%:volumetricFlowRateInlet
    %(0%)
    {
        type        flowRateInletVelocity;
        volumetricFlowRate %(multiRegionFluidBoundaries/%(0%)/VolumetricFlowRate%);
        value       uniform (0 0 0);
    }
%:massFlowRateInlet
    %(0%)
    {
        type        flowRateInletVelocity;
        massFlowRate %(multiRegionFluidBoundaries/%(0%)/MassFlowRate%);
        rho         rho;
        value       uniform (0 0 0);
    }
%:totalPressureInlet staticPressureInlet
    %(0%)
    {
        type        pressureInletOutletVelocity;
        value       uniform (0 0 0);
    }
%}
%:outlet
%{%(multiRegionFluidBoundaries/%(0%)/BoundarySubType%)
%:staticPressureOutlet
    %(0%)
    {
        type        pressureInletOutletVelocity;
        value       uniform (0 0 0);
    }
%:uniformVelocityOutlet
    %(0%)
    {
        type        fixedValue;
        value       uniform (%(multiRegionFluidBoundaries/%(0%)/Ux%) %(multiRegionFluidBoundaries/%(0%)/Uy%) %(multiRegionFluidBoundaries/%(0%)/Uz%));
    }
%:outFlowOutlet
    %(0%)
    {
        type        outletInlet;
        outletValue uniform (0 0 0);
        value       uniform (0 0 0);
    }
%}
%:open
    %(0%)
    {
        type        pressureInletOutletVelocity;
        value       uniform (0 0 0);
    }
%:constraint
%[0/_boundary_constraint%]
%}

%}

%{%(multiRegionSolidNames%)
    %(multiRegionFluidNames/0%)_to_%(multiRegionSolidNames/%(0%)%)
    {
        type        noSlip;
    }

%}
    defaultFaces
    {
        type        noSlip;
    }
}

// ************************************************************************* //
%}
