/*--------------------------------*- C++ -*----------------------------------*\
| =========                 |                                                 |
| \\      /  F ield         | OpenFOAM: The Open Source CFD Toolbox           |
|  \\    /   O peration     | Version:  4.x                                   |
|   \\  /    A nd           | Web:      www.OpenFOAM.org                      |
|    \\/     M anipulation  |                                                 |
\*---------------------------------------------------------------------------*/
FoamFile
{
    version     2.0;
    format      ascii;
    class       volScalarField;
    object      p;
}
// * * * * * * * * * * * * * * * * * * * * * * * * * * * * * * * * * * * * * //

dimensions      [0 2 -2 0 0 0 0];

internalField   uniform 0.0;

boundaryField
{

    inlet
    {
        type        zeroGradient;
    }

    inlet2
    {
        type        zeroGradient;
    }

    wall
    {
        type        zeroGradient;
    }

    outlet
    {
        type        totalPressure;
        p0          uniform 0.0;
        value       $internalField;
    }

    front
    {
        type        empty;
    }

    back
    {
        type        empty;
    }

    defaultFaces
    {
        type        zeroGradient;
    }

}

// ************************************************************************* //
