// -*- C++ -*-
// File generated by PyFoam - sorry for the ugliness

FoamFile
{
 version 2.0;
 format ascii;
 class volScalarField;
 location "0";
 object p;
}

dimensions [ 0 2 -2 0 0 0 0 ];

internalField uniform 0.0;

boundaryField
{
  inlet
  {
    type zeroGradient;
  }
  outlet
  {
    type fixedValue;
    value uniform 0;
  }
  wall
  {
    type zeroGradient;
  }
  slip
  {
    type zeroGradient;
  }
}

