/*--------------------------------*- C++ -*----------------------------------*\
|                                                                             |
|                Generated by the CfdOF workbench for FreeCAD                 |
|                  https://gitlab.com/opensimproject/CfdOF                    |
|                                                                             |
\*---------------------------------------------------------------------------*/
FoamFile
{
    version     4.0;
    format      ascii;
    class       dictionary;
    location    "system";
    object      blockMeshDict;
}
// * * * * * * * * * * * * * * * * * * * * * * * * * * * * * * * * * * * * * //

xMin    -0.15;
xMax    3.37;
yMin    -0.15;
yMax    1.1500000000000001;
zMin    -0.15;
zMax    1.1500000000000001;
cellsX  118;
cellsY  44;
cellsZ  44;

vertices
(
    ( $xMin  $yMin  $zMin)
    ( $xMax  $yMin  $zMin)
    ( $xMax  $yMax  $zMin)
    ( $xMin  $yMax  $zMin)
    ( $xMin  $yMin  $zMax)
    ( $xMax  $yMin  $zMax)
    ( $xMax  $yMax  $zMax)
    ( $xMin  $yMax  $zMax)
);

blocks
(
    hex (0 1 2 3 4 5 6 7) ($cellsX $cellsY $cellsZ) simpleGrading (1 1 1)
);

edges
(
);

boundary
(
);

// ************************************************************************* //
