/*--------------------------------*- C++ -*----------------------------------*\
|                                                                             |
|                Generated by the CfdOF workbench for FreeCAD                 |
|                  https://gitlab.com/opensimproject/CfdOF                    |
|                                                                             |
\*---------------------------------------------------------------------------*/
FoamFile
{
    version     4.0;
    format      ascii;
    class       dictionary;
    location    "system";
    object      meshQualityDict;
}
// * * * * * * * * * * * * * * * * * * * * * * * * * * * * * * * * * * * * * //

// Include defaults parameters from master dictionary
#includeIfPresent "$FOAM_ETC/caseDicts/meshQualityDict"
#includeIfPresent "$FOAM_ETC/caseDicts/mesh/generation/meshQualityDict"

// ************************************************************************* //
