/*--------------------------------*- C++ -*----------------------------------*\
|                                                                             |
|                Generated by the CfdOF workbench for FreeCAD                 |
|                  https://gitlab.com/opensimproject/CfdOF                    |
|                                                                             |
\*---------------------------------------------------------------------------*/
FoamFile
{
    version     2.0;
    format      ascii;
    class       dictionary;
    object      fvSolution;
}
// * * * * * * * * * * * * * * * * * * * * * * * * * * * * * * * * * * * * * //

pseudoTime
{
    pseudoTol          1e-6 (1e-6 1e-6 1e-6) 1e-6;
    pseudoCoNum        0.1;
    pseudoCoNumMax     25.0;

    pseudoCoNumMaxIncreaseFactor  1.5;
    pseudoCoNumMin                0.1;

    localTimestepping             true;
    localTimesteppingBounding     true;
    localTimesteppingLowerBound   0.95;

    // Last line of defense, in case of very poor grid
    rhoMin              0.01;  // TODO: Generalise
}

flowSolver
{
    solver             GMRES;
    GMRES
    {
        inviscidJacobian  LaxFriedrich;
        viscousJacobian   laplacian;
        preconditioner    LUSGS;

        maxIter           20;
        nKrylov           8;
        solverTolRel      1e-1 (1e-1 1e-1 1e-1) 1e-1;
    }
}

potentialFlow
{
    nNonOrthogonalCorrectors 8;

    PhiRefValue 0;
    PhiRefCell 0;
}

solvers
{
    "(k|omega|nuTilda)"
    {
        solver           smoothSolver;
        smoother         GaussSeidel;
        tolerance        1e-8;
        relTol           0.1;
        nSweeps          1;
        minIter          1;
    }

    "(k|omega|nuTilda)Final"
    {
        $k;
        relTol          0;
    }

    yPsi
    {
        solver          GAMG;
        smoother        GaussSeidel;
        nCellsInCoarsestLevel 10;
        agglomerator    faceAreaPair;
        mergeLevels     1;
        tolerance       1e-3;
        relTol          0;
    }

    yWall
    {
        solver          GAMG;
        smoother        symGaussSeidel;
        nCellsInCoarsestLevel 10;
        agglomerator    faceAreaPair;
        mergeLevels     1;
        tolerance       1e-8;
        relTol          0;
    }

    Phi
    {
        solver           GAMG;
        tolerance        1e-7;
        relTol           0.01;
        smoother         GaussSeidel;
        nPreSweeps       0;
        nPostSweeps      2;
        cacheAgglomeration on;
        agglomerator     faceAreaPair;
        nCellsInCoarsestLevel 10;
        mergeLevels      1;
    }
}

relaxationFactors
{
    // Conservative settings to solve reliably on bad
    // meshes
    equations
    {
        U               0.6;
        k               0.5;
        omega           0.5;
    }
    fields
    {
        p               0.3;
    }
}

cache
{
    grad(U);
}

// ************************************************************************* //
