/*--------------------------------*- C++ -*----------------------------------*\
|                                                                             |
|                Generated by the CfdOF workbench for FreeCAD                 |
|                      https://github.com/jaheyns/CfdOF                       |
|                                                                             |
\*---------------------------------------------------------------------------*/
FoamFile
{
    version     2.0;
    format      ascii;
    class       dictionary;
    object      controlDict;
}
// * * * * * * * * * * * * * * * * * * * * * * * * * * * * * * * * * * * * * //

application     interFoam;

startFrom       startTime;

startTime       0;

stopAt          endTime;

deltaT          0.001;

endTime         10.0;

writeControl    adjustableRunTime;

writeInterval   0.1;

purgeWrite      0;

adjustTimeStep  yes;

maxCo           5.0;

maxAlphaCo      5.0;

writeFormat     ascii;

writePrecision  8;

runTimeModifiable true;

libs
(
    // Needed for availability of porous baffle boundary in potentialFoam
    #include "turbulenceLib"
);

functions
{
    P3
    {
        type            probes;
        libs            ("libsampling.so");

        writeControl    timeStep;
        writeInterval   1;

        fields
        (
            p
        );

        probeLocations
        (
            ( 0.83 0.474 0.099 )
        );
    }

    P7
    {
        type            probes;
        libs            ("libsampling.so");

        writeControl    timeStep;
        writeInterval   1;

        fields
        (
            p
        );

        probeLocations
        (
            ( 0.733 0.526 0.16 )
        );
    }

}

// ************************************************************************* //
