%{%(solver/SolverName%)
%:chtMultiRegionSimpleFoam chtMultiRegionFoam
%{%(multiRegionSolidNames%)
%[_header%]
FoamFile
{
    version     2.0;
    format      ascii;
    class       dictionary;
    location    "system/%(multiRegionSolidNames/%(0%)%)";
    object      fvSolution;
}
// * * * * * * * * * * * * * * * * * * * * * * * * * * * * * * * * * * * * * //

SIMPLE
{
    nNonOrthogonalCorrectors 5;

    residualControl
    {
        h               %(solver/ConvergenceTol%);
    }
}

solvers
{
    h
    {
        solver           GAMG;
        tolerance        1e-8;
        relTol           0.1;
        smoother         symGaussSeidel;
        nPreSweeps       0;
        nPostSweeps      2;
        cacheAgglomeration on;
        agglomerator     faceAreaPair;
        nCellsInCoarsestLevel 10;
        mergeLevels      1;
    }

    hFinal
    {
        $h;
        relTol          0;
    }
}

relaxationFactors
{
    equations
    {
        h               0.9;
    }
}

// ************************************************************************* //
%} system/%(multiRegionSolidNames/%(0%)%)/fvSolution
%}
