/*--------------------------------*- C++ -*----------------------------------*\
|                                                                             |
|                Generated by the CfdOF workbench for FreeCAD                 |
|                      https://github.com/jaheyns/CfdOF                       |
|                                                                             |
\*---------------------------------------------------------------------------*/
FoamFile
{
    version     2.0;
    format      ascii;
    class       volScalarField;
    object      k;
}
// * * * * * * * * * * * * * * * * * * * * * * * * * * * * * * * * * * * * * //

dimensions      [0 2 -2 0 0 0 0];

internalField   uniform 1.0;

boundaryField
{

    battery
    {
        type        kqRWallFunction;
        value       $internalField;
    }

    inlet
    {
        type        turbulentIntensityKineticEnergyInlet;
        intensity   0.03;
        value       $internalField;
    }

    outlet
    {
        type        inletOutlet;
        inletValue  $internalField;
        value       $internalField;
    }

    wall
    {
        type        kqRWallFunction;
        value       $internalField;
    }

    defaultFaces
    {
        type        kqRWallFunction;
        value       $internalField;
    }

}

// ************************************************************************* //
