%[_header%]
FoamFile
{
    version     2.0;
    format      ascii;
    class       dictionary;
    object      fvSchemes;
}
// * * * * * * * * * * * * * * * * * * * * * * * * * * * * * * * * * * * * * //

%{%(physics/Time%)
%:Steady

ddtSchemes
{
    default         steadyState;
}

gradSchemes
{
    // Limit gradient to improve stability when bad cells encountered 
    // (0 = no limiting; 1 = do not exceed surrounding cells)
    default         cellLimited Gauss linear 0.95;
    grad(p)         leastSquares linear;
}

divSchemes
{
    default         none;
    // Use second-order accurate convection
    // Bounded schemes for steady-state solution
    div(phi,U)      bounded Gauss linearUpwindV grad(U);
    div((nuEff*dev2(T(grad(U))))) Gauss linear;
%{%(physics/Turbulence%)
%:RANS
%{%(physics/TurbulenceModel%)
%:kOmegaSST
    div(phi,k)      bounded Gauss upwind;
    div(phi,omega)  bounded Gauss upwind;
%}
%}
}

laplacianSchemes
{
    // Limited explicit correction to the surface normal gradient,
    // for stability in highly non-orthogonal cells.
    // (0 = uncorrected, fully implicit; 1 = full correction)
    default         Gauss linear limited 0.3;
}

interpolationSchemes
{
    default         linear;
}

snGradSchemes
{
    // Limited explicit correction to the surface normal gradient,
    // for stability in highly non-orthogonal cells.
    // (0 = uncorrected, fully implicit; 1 = full correction)
    default         limited 0.3;
}

%:Transient

ddtSchemes
{
    default         Euler;
}

gradSchemes
{
    default         Gauss linear;
    grad(p)         Gauss linear;
    grad(U)         Gauss linear;
}

divSchemes
{
    // Use second-order accurate convection
%{%(solver/solverName%)
%:pimpleFoam
    div(phi,U)      Gauss linearUpwindV grad(U);
    div((nuEff*dev2(T(grad(U))))) Gauss linear;
%:interFoam multiphaseInterFoam
    div(rhoPhi,U)   Gauss linearUpwind grad(U);
    div(phi,alpha)  Gauss vanLeer;
    div(phirb,alpha) Gauss linear;
    div(((rho*nuEff)*dev2(T(grad(U))))) Gauss linear;
%}
%{%(physics/Turbulence%)
%:RANS
%{%(physics/TurbulenceModel%)
%:kOmegaSST
    div(phi,k)      Gauss upwind;
    div(phi,omega)  Gauss upwind;
%}
%}
}

laplacianSchemes
{
    // Limited explicit correction to the surface normal gradient,
    // for stability in highly non-orthogonal cells.
    // (0 = uncorrected, fully implicit; 1 = full correction)
    default         Gauss linear limited 0.3;
}

interpolationSchemes
{
    default         linear;
    interpolate(U)  linear;
}

snGradSchemes
{
    default         limited 0.3;
}

%}
wallDist
{
    method meshWave;
}


// ************************************************************************* //
