%[_header%]
FoamFile
{
    version     2.0;
    format      ascii;
    class       dictionary;
    object      fvSolution;
}
// * * * * * * * * * * * * * * * * * * * * * * * * * * * * * * * * * * * * * //

solvers
{
    "(p|p_rgh|pcorr)"
    {
        solver           GAMG;
        tolerance        1e-7;
        relTol           0.01;
        smoother         GaussSeidel;
        nPreSweeps       0;
        nPostSweeps      2;
        cacheAgglomeration on;
        agglomerator     faceAreaPair;
        nCellsInCoarsestLevel 10;
        mergeLevels      1;
    }

    "(pFinal|p_rghFinal|pcorrFinal)"
    {
        $p;
        relTol          0;
    }

    Phi
    {
        $p;
    }

    U
    {
        solver           smoothSolver;
        smoother         GaussSeidel;
        tolerance        1e-8;
        relTol           0.1;
        nSweeps          1;
    }

    UFinal
    {
        $U;
        relTol          0;
    }

    "(k|epsilon|omega|f|v2)"
    {
        solver           smoothSolver;
        smoother         GaussSeidel;
        tolerance        1e-8;
        relTol           0.1;
        nSweeps          1;
    }

    "(k|epsilon|omega|f|v2)Final"
    {
        $k;
        relTol          0;
    }

%{%(solver/solverName%)
%:interFoam multiphaseInterFoam
    "alpha.*"
    {
        nAlphaCorr      2;
        nAlphaSubCycles 1;
        cAlpha          1;

        MULESCorr       yes;
        nLimiterIter    3;

        solver          smoothSolver;
        smoother        symGaussSeidel;
        tolerance       1e-8;
        relTol          0;
    }

%}
}

%{%(physics/Time%)
%:Steady
SIMPLE
{
    // Non-orthogonal correctors for robustness on tet meshes. Porous baffles require a
    // higher number of corrections.
    nNonOrthogonalCorrectors 5;

    consistent no;  // Setting this impairs stability of porous baffles
    residualControl
    {
        p %(solver/convergenceCriteria%);
        U %(solver/convergenceCriteria%);
        "(k|epsilon|omega|f|v2|nuTilda)" %(solver/convergenceCriteria%);
    }
    pRefValue   0;
    pRefCell    0;
}

%:Transient
PIMPLE
{
%{%(solver/solverName%)
%:interFoam multiphaseInterFoam
    nOuterCorrectors 3;
    nNonOrthogonalCorrectors 2;
    nCorrectors         2;
%:default
    nOuterCorrectors 10;
    nNonOrthogonalCorrectors 2;
    nCorrectors         2;
    outerCorrectorResidualControl
    {
        U
        {
            tolerance   %(solver/convergenceCriteria%);
            relTol      0;
        }
        p
        {
            tolerance   %(solver/convergenceCriteria%);
            relTol      0;
        }
    }
%}
    pRefValue   0;
    pRefCell    0;
}

%}
potentialFlow
{
    nNonOrthogonalCorrectors 8;

    PhiRefValue 0;
    PhiRefCell 0;
}

relaxationFactors
{
    // Conservative settings to solve reliably on bad
    // meshes
%{%(physics/Time%)
%:Steady
    equations
    {
        U               0.6;
%{%(physics/Turbulence%)
%:RANS
%{%(physics/TurbulenceModel%)
%:kOmegaSST
        k               0.5;
        omega           0.5;
%}
%}
    }
    fields
    {
        p               0.3;
    }
%:Transient
    equations
    {
        U               0.6;
        UFinal          1;
%{%(physics/Turbulence%)
%:RANS
%{%(physics/TurbulenceModel%)
%:kOmegaSST
        k               0.5;
        kFinal          1;
        omega           0.5;
        omegaFinal      1;
%}
%}
    }
    fields
    {
        p               0.3;
    }
%}
}

cache
{
    grad(U);
}

// ************************************************************************* //
